
     RDKit          3D

 63 67  0  0  0  0  0  0  0  0999 V2000
   31.0933   -0.1957   28.0476 C   0  0  1  0  0  0  0  0  0  0  0  0
   29.7602    0.7352   27.2233 S   0  0  0  0  0  0  0  0  0  0  0  0
   28.4938   -0.5004   27.3687 C   0  0  0  0  0  0  0  0  0  0  0  0
   27.1656   -0.0808   27.2080 C   0  0  0  0  0  0  0  0  0  0  0  0
   26.1224   -0.9932   27.3355 C   0  0  0  0  0  0  0  0  0  0  0  0
   24.8310   -0.5758   27.1657 O   0  0  0  0  0  0  0  0  0  0  0  0
   26.3767   -2.3258   27.6241 C   0  0  0  0  0  0  0  0  0  0  0  0
   27.6964   -2.7496   27.7795 C   0  0  0  0  0  0  0  0  0  0  0  0
   28.7599   -1.8469   27.6462 C   0  0  0  0  0  0  0  0  0  0  0  0
   29.9922   -2.4141   27.8071 O   0  0  0  0  0  0  0  0  0  0  0  0
   31.1774   -1.6498   27.5569 C   0  0  1  0  0  0  0  0  0  0  0  0
   24.5616   -1.0050   26.3213 H   0  0  0  0  0  0  0  0  0  0  0  0
   35.9993    2.5548   27.9621 O   0  0  0  0  0  0  0  0  0  0  0  0
   34.8078    1.8866   27.9786 C   0  0  0  0  0  0  0  0  0  0  0  0
   34.5185    1.0450   29.0571 C   0  0  0  0  0  0  0  0  0  0  0  0
   33.3133    0.3534   29.0860 C   0  0  0  0  0  0  0  0  0  0  0  0
   32.4065    0.5290   28.0346 C   0  0  0  0  0  0  0  0  0  0  0  0
   32.7300    1.3726   26.9578 C   0  0  0  0  0  0  0  0  0  0  0  0
   33.9252    2.0735   26.9143 C   0  0  0  0  0  0  0  0  0  0  0  0
   36.7087    2.0220   28.4330 H   0  0  0  0  0  0  0  0  0  0  0  0
   31.6928   -1.8907   26.1706 C   0  0  0  0  0  0  0  0  0  0  0  0
   32.6460   -2.9061   25.9857 C   0  0  0  0  0  0  0  0  0  0  0  0
   33.1555   -3.1459   24.7247 C   0  0  0  0  0  0  0  0  0  0  0  0
   32.6886   -2.3958   23.6467 C   0  0  0  0  0  0  0  0  0  0  0  0
   31.7397   -1.3884   23.8444 C   0  0  0  0  0  0  0  0  0  0  0  0
   31.2186   -1.1273   25.0986 C   0  0  0  0  0  0  0  0  0  0  0  0
   33.1395   -2.6139   22.3697 O   0  0  0  0  0  0  0  0  0  0  0  0
   33.6940   -3.9263   22.2299 C   0  0  0  0  0  0  0  0  0  0  0  0
   33.4574   -4.4031   20.8107 C   0  0  0  0  0  0  0  0  0  0  0  0
   33.4835   -3.2410   19.8571 N   0  0  0  0  0  4  0  0  0  0  0  0
   34.8643   -2.9204   19.3720 C   0  0  0  0  0  0  0  0  0  0  0  0
   34.8156   -1.6763   18.4972 C   0  0  0  0  0  0  0  0  0  0  0  0
   33.8245   -1.8338   17.3553 C   0  0  0  0  0  0  0  0  0  0  0  0
   32.4425   -2.2217   17.8662 C   0  0  0  0  0  0  0  0  0  0  0  0
   32.4991   -3.4668   18.7405 C   0  0  0  0  0  0  0  0  0  0  0  0
   33.1132   -2.4671   20.4386 H   0  0  0  0  0  0  0  0  0  0  0  0
   30.7611   -0.2245   29.0955 H   0  0  0  0  0  0  0  0  0  0  0  0
   26.9182    0.9567   27.0016 H   0  0  0  0  0  0  0  0  0  0  0  0
   25.5683   -3.0518   27.6688 H   0  0  0  0  0  0  0  0  0  0  0  0
   27.9039   -3.8066   27.9489 H   0  0  0  0  0  0  0  0  0  0  0  0
   31.9129   -2.1109   28.2320 H   0  0  0  0  0  0  0  0  0  0  0  0
   35.2480    0.9190   29.8539 H   0  0  0  0  0  0  0  0  0  0  0  0
   33.1032   -0.3161   29.9158 H   0  0  0  0  0  0  0  0  0  0  0  0
   32.0892    1.4318   26.0974 H   0  0  0  0  0  0  0  0  0  0  0  0
   34.2009    2.6774   26.0658 H   0  0  0  0  0  0  0  0  0  0  0  0
   32.9785   -3.5153   26.8259 H   0  0  0  0  0  0  0  0  0  0  0  0
   33.9265   -3.9043   24.6637 H   0  0  0  0  0  0  0  0  0  0  0  0
   31.3870   -0.8091   23.0204 H   0  0  0  0  0  0  0  0  0  0  0  0
   30.4190   -0.4100   25.1458 H   0  0  0  0  0  0  0  0  0  0  0  0
   34.7680   -3.8567   22.4108 H   0  0  0  0  0  0  0  0  0  0  0  0
   33.2356   -4.6837   22.8737 H   0  0  0  0  0  0  0  0  0  0  0  0
   34.1488   -5.1804   20.4752 H   0  0  0  0  0  0  0  0  0  0  0  0
   32.4428   -4.8060   20.7830 H   0  0  0  0  0  0  0  0  0  0  0  0
   35.4970   -2.7506   20.2492 H   0  0  0  0  0  0  0  0  0  0  0  0
   35.2358   -3.7891   18.8170 H   0  0  0  0  0  0  0  0  0  0  0  0
   34.5454   -0.8103   19.1111 H   0  0  0  0  0  0  0  0  0  0  0  0
   35.8148   -1.4758   18.0937 H   0  0  0  0  0  0  0  0  0  0  0  0
   33.8283   -0.8972   16.8248 H   0  0  0  0  0  0  0  0  0  0  0  0
   34.1843   -2.6011   16.6590 H   0  0  0  0  0  0  0  0  0  0  0  0
   32.0112   -1.3987   18.4355 H   0  0  0  0  0  0  0  0  0  0  0  0
   31.7582   -2.4062   17.0359 H   0  0  0  0  0  0  0  0  0  0  0  0
   31.5157   -3.6515   19.1858 H   0  0  0  0  0  0  0  0  0  0  0  0
   32.8258   -4.3481   18.1773 H   0  0  0  0  0  0  0  0  0  0  0  0
  1 17  1  0
  1  2  1  0
  2  3  1  0
  3  4  2  0
  4  5  1  0
  5  6  1  0
  5  7  2  0
  6 12  1  0
  7  8  1  0
  8  9  2  0
  9 10  1  0
  9  3  1  0
 10 11  1  0
 11 21  1  0
 11  1  1  0
 13 14  1  0
 13 20  1  0
 14 15  2  0
 15 16  1  0
 16 17  2  0
 17 18  1  0
 18 19  2  0
 19 14  1  0
 21 22  2  0
 22 23  1  0
 23 24  2  0
 24 27  1  0
 24 25  1  0
 25 26  2  0
 26 21  1  0
 27 28  1  0
 28 29  1  0
 29 30  1  0
 30 31  1  0
 30 36  1  0
 31 32  1  0
 32 33  1  0
 33 34  1  0
 34 35  1  0
 35 30  1  0
  1 37  1  1
  4 38  1  0
  7 39  1  0
  8 40  1  0
 11 41  1  1
 15 42  1  0
 16 43  1  0
 18 44  1  0
 19 45  1  0
 22 46  1  0
 23 47  1  0
 25 48  1  0
 26 49  1  0
 28 50  1  0
 28 51  1  0
 29 52  1  0
 29 53  1  0
 31 54  1  0
 31 55  1  0
 32 56  1  0
 32 57  1  0
 33 58  1  0
 33 59  1  0
 34 60  1  0
 34 61  1  0
 35 62  1  0
 35 63  1  0
M  CHG  1  30   1
M  END
>  <minimizedAffinity>  (1) 
-12.22471

>  <CNNscore>  (1) 
0.9830145836

>  <CNNaffinity>  (1) 
8.4029960632

>  <CNN_VS>  (1) 
8.2602672577

>  <CNNaffinity_variance>  (1) 
0.4278099537

$$$$
